
#======================================================================
# CRYSTAL DATA
#----------------------------------------------------------------------
data_VESTA_phase_1

_chemical_name_common                  'CONTCAR\(22)                          '
_cell_length_a                         9.816200
_cell_length_b                         9.816200
_cell_length_c                         15.000000
_cell_angle_alpha                      90.000000
_cell_angle_beta                       90.000000
_cell_angle_gamma                      119.999802
_cell_volume                           1251.726879
_space_group_name_H-M_alt              'P 1'
_space_group_IT_number                 1

loop_
_space_group_symop_operation_xyz
   'x, y, z'

loop_
   _atom_site_label
   _atom_site_occupancy
   _atom_site_fract_x
   _atom_site_fract_y
   _atom_site_fract_z
   _atom_site_adp_type
   _atom_site_U_iso_or_equiv
   _atom_site_type_symbol
   C1         1.0    -0.000199     0.999475     0.066141    Uiso  ? C
   C2         1.0     0.915763     0.333252     0.066166    Uiso  ? C
   C3         1.0     0.915788     0.083157     0.066154    Uiso  ? C
   C4         1.0     0.667229     0.583994     0.067735    Uiso  ? C
   C5         1.0     0.666199     0.083405     0.066252    Uiso  ? C
   C6         1.0     0.416621     0.584284     0.066269    Uiso  ? C
   C7         1.0     0.417363     0.083935     0.066525    Uiso  ? C
   C8         1.0     0.166064     0.833359     0.066382    Uiso  ? C
   C9         1.0     0.165139     0.582891     0.066507    Uiso  ? C
   C10        1.0     0.165180     0.082957     0.066867    Uiso  ? C
   C11        1.0     0.915499     0.582399     0.066298    Uiso  ? C
   C12        1.0     0.915515     0.833812     0.066256    Uiso  ? C
   C13        1.0     0.749701     0.249924     0.066400    Uiso  ? C
   C14        1.0     0.749720     0.000457     0.066210    Uiso  ? C
   C15        1.0     0.500367     0.751197     0.066346    Uiso  ? C
   C16        1.0     0.500496     0.500635     0.068574    Uiso  ? C
   C17        1.0     0.500334     0.249885     0.066961    Uiso  ? C
   C18        1.0     0.498998    -0.000154     0.066200    Uiso  ? C
   C19        1.0     0.998095     0.249381     0.065719    Uiso  ? C
   C20        1.0     0.249880     0.749992     0.066279    Uiso  ? C
   C21        1.0     0.749928     0.500289     0.066934    Uiso  ? C
   C22        1.0     0.249274     0.501166     0.067097    Uiso  ? C
   C23        1.0     0.249306     0.248833     0.067518    Uiso  ? C
   C24        1.0     0.249892     0.000569     0.066568    Uiso  ? C
   C25        1.0     0.998675     0.749679     0.066338    Uiso  ? C
   C26        1.0    -0.000248     0.500995     0.066024    Uiso  ? C
   C27        1.0     0.417360     0.834088     0.066169    Uiso  ? C
   C28        1.0     0.416565     0.332996     0.066854    Uiso  ? C
   C29        1.0     0.749960     0.750390     0.066671    Uiso  ? C
   N1         1.0     0.666482     0.833906     0.066478    Uiso  ? N
   N2         1.0     0.666471     0.333244     0.066937    Uiso  ? N
   N3         1.0     0.164383     0.332492     0.064949    Uiso  ? N
   Li1        1.0     0.344899     0.425549     0.180623    Uiso  ? Li
