
#======================================================================
# CRYSTAL DATA
#----------------------------------------------------------------------
data_VESTA_phase_1

_chemical_name_common                  'graphite\(2)\(0\0\1)                  '
_cell_length_a                         9.840000
_cell_length_b                         9.840000
_cell_length_c                         15.000000
_cell_angle_alpha                      90.000000
_cell_angle_beta                       90.000000
_cell_angle_gamma                      120.000000
_cell_volume                           1257.801479
_space_group_name_H-M_alt              'P 1'
_space_group_IT_number                 1

loop_
_space_group_symop_operation_xyz
   'x, y, z'

loop_
   _atom_site_label
   _atom_site_occupancy
   _atom_site_fract_x
   _atom_site_fract_y
   _atom_site_fract_z
   _atom_site_adp_type
   _atom_site_U_iso_or_equiv
   _atom_site_type_symbol
   C1         1.0     0.000000     0.000000     0.066670    Uiso  ? C
   C2         1.0     0.166670     0.083330     0.066670    Uiso  ? C
   C3         1.0     0.250000     0.000000     0.066670    Uiso  ? C
   C4         1.0     0.416670     0.083330     0.066670    Uiso  ? C
   C5         1.0     0.500000     0.000000     0.066670    Uiso  ? C
   C6         1.0     0.666670     0.083330     0.066670    Uiso  ? C
   C7         1.0     0.750000     0.000000     0.066670    Uiso  ? C
   C8         1.0     0.916670     0.083330     0.066670    Uiso  ? C
   C9         1.0     0.000000     0.250000     0.066670    Uiso  ? C
   C10        1.0     0.166670     0.333330     0.066670    Uiso  ? C
   C11        1.0     0.250000     0.250000     0.066670    Uiso  ? C
   C12        1.0     0.416670     0.333330     0.066670    Uiso  ? C
   C13        1.0     0.500000     0.250000     0.066670    Uiso  ? C
   C14        1.0     0.666670     0.333330     0.066670    Uiso  ? C
   C15        1.0     0.750000     0.250000     0.066670    Uiso  ? C
   C16        1.0     0.916670     0.333330     0.066670    Uiso  ? C
   C17        1.0     0.000000     0.500000     0.066670    Uiso  ? C
   C18        1.0     0.166670     0.583330     0.066670    Uiso  ? C
   C19        1.0     0.250000     0.500000     0.066670    Uiso  ? C
   C20        1.0     0.416670     0.583330     0.066670    Uiso  ? C
   C21        1.0     0.500000     0.500000     0.066670    Uiso  ? C
   C22        1.0     0.666670     0.583330     0.066670    Uiso  ? C
   C23        1.0     0.750000     0.500000     0.066670    Uiso  ? C
   C24        1.0     0.916670     0.583330     0.066670    Uiso  ? C
   C25        1.0     0.000000     0.750000     0.066670    Uiso  ? C
   C26        1.0     0.166670     0.833330     0.066670    Uiso  ? C
   C27        1.0     0.250000     0.750000     0.066670    Uiso  ? C
   C28        1.0     0.416670     0.833330     0.066670    Uiso  ? C
   C29        1.0     0.500000     0.750000     0.066670    Uiso  ? C
   C30        1.0     0.666670     0.833330     0.066670    Uiso  ? C
   C31        1.0     0.750000     0.750000     0.066670    Uiso  ? C
   C32        1.0     0.916670     0.833330     0.066670    Uiso  ? C
