
#======================================================================
# CRYSTAL DATA
#----------------------------------------------------------------------
data_VESTA_phase_1

_chemical_name_common                  'C29 N3                                '
_cell_length_a                         9.816306
_cell_length_b                         9.816306
_cell_length_c                         14.999901
_cell_angle_alpha                      90.000000
_cell_angle_beta                       90.000000
_cell_angle_gamma                      119.999886
_cell_volume                           1251.744541
_space_group_name_H-M_alt              'P 1'
_space_group_IT_number                 1

loop_
_space_group_symop_operation_xyz
   'x, y, z'

loop_
   _atom_site_label
   _atom_site_occupancy
   _atom_site_fract_x
   _atom_site_fract_y
   _atom_site_fract_z
   _atom_site_adp_type
   _atom_site_U_iso_or_equiv
   _atom_site_type_symbol
   C1         1.0     0.000254    -0.000254     0.066670    Uiso  ? C
   C2         1.0     0.916737     0.333468     0.066670    Uiso  ? C
   C3         1.0     0.916737     0.083263     0.066670    Uiso  ? C
   C4         1.0     0.666305     0.583152     0.066670    Uiso  ? C
   C5         1.0     0.666532     0.083263     0.066670    Uiso  ? C
   C6         1.0     0.416850     0.583150     0.066670    Uiso  ? C
   C7         1.0     0.417981     0.084256     0.066670    Uiso  ? C
   C8         1.0     0.166670     0.833330     0.066670    Uiso  ? C
   C9         1.0     0.166275     0.582019     0.066670    Uiso  ? C
   C10        1.0     0.166280     0.084256     0.066670    Uiso  ? C
   C11        1.0     0.915744     0.582019     0.066670    Uiso  ? C
   C12        1.0     0.915744     0.833720     0.066670    Uiso  ? C
   C13        1.0     0.750129     0.249871     0.066670    Uiso  ? C
   C14        1.0     0.750130     0.000251     0.066670    Uiso  ? C
   C15        1.0     0.500578     0.750263     0.066670    Uiso  ? C
   C16        1.0     0.500002     0.499998     0.066670    Uiso  ? C
   C17        1.0     0.500580     0.250310     0.066670    Uiso  ? C
   C18        1.0     0.499494    -0.000253     0.066670    Uiso  ? C
   C19        1.0    -0.000251     0.249870     0.066670    Uiso  ? C
   C20        1.0     0.250524     0.749476     0.066670    Uiso  ? C
   C21        1.0     0.749690     0.499420     0.066670    Uiso  ? C
   C22        1.0     0.249738     0.499422     0.066670    Uiso  ? C
   C23        1.0     0.249737     0.250311     0.066670    Uiso  ? C
   C24        1.0     0.250525     0.001046     0.066670    Uiso  ? C
   C25        1.0    -0.001046     0.749475     0.066670    Uiso  ? C
   C26        1.0     0.000253     0.500506     0.066670    Uiso  ? C
   C27        1.0     0.417981     0.833725     0.066670    Uiso  ? C
   C28        1.0     0.416848     0.333695     0.066670    Uiso  ? C
   C29        1.0     0.749689     0.750263     0.066670    Uiso  ? C
   N1         1.0     0.666696     0.833382     0.066670    Uiso  ? N
   N2         1.0     0.666694     0.333306     0.066670    Uiso  ? N
   N3         1.0     0.166618     0.333304     0.066670    Uiso  ? N
